/*--------------------------------*- C++ -*----------------------------------*\
| =========                 |                                                 |
| \\      /  F ield         | OpenFOAM: The Open Source CFD Toolbox           |
|  \\    /   O peration     | Version:  2406                                  |
|   \\  /    A nd           | Website:  www.openfoam.com                      |
|    \\/     M anipulation  |                                                 |
\*---------------------------------------------------------------------------*/
FoamFile
{
    version     2.0;
    format      ascii;
    arch        "LSB;label=32;scalar=32";
    class       polyBoundaryMesh;
    location    "constant/polyMesh";
    object      boundary;
}
// * * * * * * * * * * * * * * * * * * * * * * * * * * * * * * * * * * * * * //


3
(
    floor
    {
        type            wall;
        inGroups        1 ( wall );
        nFaces          1024;
        startFace       95232;
    }

    ceiling
    {
        type            wall;
        inGroups        1 ( wall );
        nFaces          1024;
        startFace       96256;
    }

    sideWalls
    {
        type            wall;
        inGroups        1 ( wall );
        nFaces          4096;
        startFace       97280;
    }

)


// ************************************************************************* //
